
     RDKit          3D

 53 56  0  0  0  0  0  0  0  0999 V2000
    0.6510    7.6930   -8.2530 C   0  0  0  0  0  0  0  0  0  0  0  0
   -0.1350    6.4350   -8.3480 C   0  0  0  0  0  0  0  0  0  0  0  0
   -0.6340    6.0830   -9.6070 C   0  0  0  0  0  0  0  0  0  0  0  0
   -1.3660    4.9520   -9.7750 C   0  0  0  0  0  0  0  0  0  0  0  0
   -1.6400    4.1110   -8.6930 C   0  0  0  0  0  0  0  0  0  0  0  0
   -2.3920    2.9580   -8.9760 N   0  0  0  0  0  0  0  0  0  0  0  0
   -1.9220    1.9120   -9.8030 C   0  0  0  0  0  0  0  0  0  0  0  0
   -0.7100    1.3650   -9.6440 N   0  0  0  0  0  0  0  0  0  0  0  0
   -0.2870    0.3600  -10.4200 C   0  0  0  0  0  0  0  0  0  0  0  0
   -1.0950   -0.1600  -11.4270 C   0  0  0  0  0  0  0  0  0  0  0  0
   -2.3360    0.3860  -11.6070 C   0  0  0  0  0  0  0  0  0  0  0  0
   -3.2440   -0.0210  -12.5990 N   0  0  0  0  0  0  0  0  0  0  0  0
   -2.6590   -0.7150  -13.7750 C   0  0  0  0  0  0  0  0  0  0  0  0
   -4.6490    0.1590  -12.5930 C   0  0  0  0  0  0  0  0  0  0  0  0
   -5.4690   -0.6950  -13.3250 C   0  0  0  0  0  0  0  0  0  0  0  0
   -6.8400   -0.5670  -13.3400 C   0  0  0  0  0  0  0  0  0  0  0  0
   -7.4750    0.4220  -12.6240 C   0  0  0  0  0  0  0  0  0  0  0  0
   -8.7810    0.8130  -12.4340 C   0  0  0  0  0  0  0  0  0  0  0  0
   -9.9910    0.1870  -13.0400 C   0  0  0  0  0  0  0  0  0  0  0  0
   -8.7970    1.8760  -11.6100 N   0  0  0  0  0  0  0  0  0  0  0  0
   -9.9990    2.5880  -11.1550 C   0  0  0  0  0  0  0  0  0  0  0  0
   -7.5400    2.1400  -11.2960 N   0  0  0  0  0  0  0  0  0  0  0  0
   -6.6910    1.2790  -11.8920 C   0  0  0  0  0  0  0  0  0  0  0  0
   -5.3020    1.1430  -11.8800 C   0  0  0  0  0  0  0  0  0  0  0  0
   -2.7080    1.4020  -10.7900 N   0  0  0  0  0  0  0  0  0  0  0  0
   -1.1530    4.4560   -7.4780 C   0  0  0  0  0  0  0  0  0  0  0  0
   -0.4010    5.6110   -7.2790 C   0  0  0  0  0  0  0  0  0  0  0  0
    0.2200    6.0400   -5.6960 S   0  0  0  0  0  6  0  0  0  0  0  0
    1.1790    4.7820   -5.0070 N   0  0  0  0  0  2  0  0  0  0  0  0
    1.0990    7.2650   -5.8220 O   0  0  0  0  0  0  0  0  0  0  0  0
   -0.9030    6.4180   -4.7600 O   0  0  0  0  0  0  0  0  0  0  0  0
    0.8098    7.9471   -7.1946 H   0  0  0  0  0  0  0  0  0  0  0  0
    1.6241    7.5555   -8.7471 H   0  0  0  0  0  0  0  0  0  0  0  0
    0.1008    8.5073   -8.7471 H   0  0  0  0  0  0  0  0  0  0  0  0
   -0.4305    6.7312  -10.4721 H   0  0  0  0  0  0  0  0  0  0  0  0
   -1.7477    4.6947  -10.7740 H   0  0  0  0  0  0  0  0  0  0  0  0
   -3.3450    2.8650   -8.5630 H   0  0  0  0  0  0  0  0  0  0  0  0
    0.7160   -0.0621  -10.2593 H   0  0  0  0  0  0  0  0  0  0  0  0
   -0.7449   -0.9879  -12.0611 H   0  0  0  0  0  0  0  0  0  0  0  0
   -1.9855   -1.5140  -13.4316 H   0  0  0  0  0  0  0  0  0  0  0  0
   -3.4659   -1.1513  -14.3821 H   0  0  0  0  0  0  0  0  0  0  0  0
   -2.0925    0.0064  -14.3821 H   0  0  0  0  0  0  0  0  0  0  0  0
   -5.0052   -1.5010  -13.9126 H   0  0  0  0  0  0  0  0  0  0  0  0
   -7.4401   -1.2698  -13.9366 H   0  0  0  0  0  0  0  0  0  0  0  0
  -10.6629   -0.1606  -12.2414 H   0  0  0  0  0  0  0  0  0  0  0  0
  -10.5141    0.9276  -13.6628 H   0  0  0  0  0  0  0  0  0  0  0  0
   -9.6887   -0.6678  -13.6628 H   0  0  0  0  0  0  0  0  0  0  0  0
  -10.0226    2.6020  -10.0553 H   0  0  0  0  0  0  0  0  0  0  0  0
   -9.9794    3.6203  -11.5345 H   0  0  0  0  0  0  0  0  0  0  0  0
  -10.8949    2.0748  -11.5345 H   0  0  0  0  0  0  0  0  0  0  0  0
   -4.7060    1.8463  -11.2799 H   0  0  0  0  0  0  0  0  0  0  0  0
   -1.3584    3.8014   -6.6182 H   0  0  0  0  0  0  0  0  0  0  0  0
    1.3090    4.0420   -5.7530 H   0  0  0  0  0  0  0  0  0  0  0  0
  1  2  1  0
  2  3  2  0
  3  4  1  0
  4  5  2  0
  5  6  1  0
  6  7  1  0
  7  8  2  0
  8  9  1  0
  9 10  2  0
 10 11  1  0
 11 12  1  0
 12 13  1  0
 12 14  1  0
 14 15  1  0
 15 16  2  0
 16 17  1  0
 17 18  2  0
 18 19  1  0
 18 20  1  0
 20 21  1  0
 20 22  1  0
 22 23  2  0
 23 24  1  0
 11 25  2  0
  5 26  1  0
 26 27  2  0
 27 28  1  0
 28 29  1  0
 28 30  2  0
 28 31  2  0
 27  2  1  0
 25  7  1  0
 24 14  2  0
 23 17  1  0
  1 32  1  0
  1 33  1  0
  1 34  1  0
  3 35  1  0
  4 36  1  0
  6 37  1  0
  9 38  1  0
 10 39  1  0
 13 40  1  0
 13 41  1  0
 13 42  1  0
 15 43  1  0
 16 44  1  0
 19 45  1  0
 19 46  1  0
 19 47  1  0
 21 48  1  0
 21 49  1  0
 21 50  1  0
 24 51  1  0
 26 52  1  0
 29 53  1  0
M  CHG  1  29  -1
M  END
