obj01
  PyMOL3.1          3D                             0

 49 51  0  0  0  0  0  0  0  0999 V2000
   -3.4716   -1.0934  -13.3599 C   0  0  0  0  0  0  0  0  0  0  0  0
   -4.2045   -2.0739  -14.0857 C   0  0  0  0  0  0  0  0  0  0  0  0
   -5.5279   -2.0300  -14.1248 N   0  0  0  0  0  0  0  0  0  0  0  0
   -6.2015   -1.1134  -13.5144 C   0  0  0  0  0  0  0  0  0  0  0  0
   -4.1767   -0.0692  -12.6715 C   0  0  0  0  0  0  0  0  0  0  0  0
   -5.5387   -0.0721  -12.7463 C   0  0  0  0  0  0  0  0  0  0  0  0
   -6.3451    1.0305  -12.0097 C   0  0  0  0  0  0  0  0  0  0  0  0
   -5.6566    2.0541  -11.2541 N   0  0  0  0  0  0  0  0  0  0  0  0
   -4.2553    2.0758  -11.1681 C   0  0  0  0  0  0  0  0  0  0  0  0
   -3.4762    1.0207  -11.8764 C   0  0  0  0  0  0  0  0  0  0  0  0
   -7.5773    1.0276  -12.0772 O   0  0  0  0  0  0  0  0  0  0  0  0
   -6.3428    3.1224  -10.5312 C   0  0  0  0  0  0  0  0  0  0  0  0
    0.0996    0.8603  -10.4960 C   0  0  0  0  0  0  0  0  0  0  0  0
    2.3552    0.9849  -11.5907 C   0  0  0  0  0  0  0  0  0  0  0  0
    3.0756    2.2254  -11.5143 N   0  0  0  0  0  0  0  0  0  0  0  0
    2.6685    3.3107  -12.4214 C   0  0  0  0  0  0  0  0  0  0  0  0
   -1.3212    0.8641  -10.5510 C   0  0  0  0  0  0  0  0  0  0  0  0
   -1.9575    1.0254  -11.7897 C   0  0  0  0  0  0  0  0  0  0  0  0
   -1.2090    1.1759  -12.9685 C   0  0  0  0  0  0  0  0  0  0  0  0
    0.1866    1.1670  -12.9115 C   0  0  0  0  0  0  0  0  0  0  0  0
    0.8340    1.0286  -11.6604 C   0  0  0  0  0  0  0  0  0  0  0  0
    0.9593    1.3143  -14.0888 O   0  0  0  0  0  0  0  0  0  0  0  0
    0.0697    1.2863  -15.1516 C   0  0  0  0  0  0  0  0  0  0  0  0
    3.2477    2.5708  -10.1529 C   0  0  0  0  0  0  0  0  0  0  0  0
   -2.1011    0.7262   -9.3436 O   0  0  0  0  0  0  0  0  0  0  0  0
   -2.0080    1.8881   -8.5205 C   0  0  0  0  0  0  0  0  0  0  0  0
   -7.1620   -1.1183  -13.5681 H   0  0  0  0  0  0  0  0  0  0  0  0
    0.5641    0.7377   -9.6269 H   0  0  0  0  0  0  0  0  0  0  0  0
    3.5801    1.7992   -9.6642 H   0  0  0  0  0  0  0  0  0  0  0  0
    2.3940    2.8491   -9.7806 H   0  0  0  0  0  0  0  0  0  0  0  0
    3.8865    3.3002  -10.0837 H   0  0  0  0  0  0  0  0  0  0  0  0
   -2.8438    1.9935   -7.9985 H   0  0  0  0  0  0  0  0  0  0  0  0
   -1.8730    2.6884   -9.0891 H   0  0  0  0  0  0  0  0  0  0  0  0
   -1.2422    1.7944   -7.8985 H   0  0  0  0  0  0  0  0  0  0  0  0
   -2.5143   -1.1222  -13.3349 H   0  0  0  0  0  0  0  0  0  0  0  0
   -3.7295   -2.7838  -14.5580 H   0  0  0  0  0  0  0  0  0  0  0  0
    3.3186    4.0435  -12.3684 H   0  0  0  0  0  0  0  0  0  0  0  0
    2.6324    2.9726  -13.3416 H   0  0  0  0  0  0  0  0  0  0  0  0
    1.7825    3.6412  -12.1604 H   0  0  0  0  0  0  0  0  0  0  0  0
   -3.8012    2.7689  -10.6542 H   0  0  0  0  0  0  0  0  0  0  0  0
   -5.6857    3.6875  -10.0782 H   0  0  0  0  0  0  0  0  0  0  0  0
   -6.8582    3.6662  -11.1598 H   0  0  0  0  0  0  0  0  0  0  0  0
   -6.9477    2.7346   -9.8678 H   0  0  0  0  0  0  0  0  0  0  0  0
   -1.6555    1.2848  -13.8125 H   0  0  0  0  0  0  0  0  0  0  0  0
    2.5928    0.4633  -10.7995 H   0  0  0  0  0  0  0  0  0  0  0  0
    2.6673    0.5181  -12.3902 H   0  0  0  0  0  0  0  0  0  0  0  0
   -0.5078    2.0402  -15.1011 H   0  0  0  0  0  0  0  0  0  0  0  0
    0.5533    1.3112  -15.9701 H   0  0  0  0  0  0  0  0  0  0  0  0
   -0.4460    0.4882  -15.1118 H   0  0  0  0  0  0  0  0  0  0  0  0
  1  2  1  0  0  0  0
  2  3  2  0  0  0  0
  3  4  1  0  0  0  0
  1  5  2  0  0  0  0
  4  6  2  0  0  0  0
  5  6  1  0  0  0  0
  6  7  1  0  0  0  0
  7  8  1  0  0  0  0
  8  9  1  0  0  0  0
  5 10  1  0  0  0  0
  9 10  2  0  0  0  0
  7 11  2  0  0  0  0
  8 12  1  0  0  0  0
 14 15  1  0  0  0  0
 15 16  1  0  0  0  0
 13 17  2  0  0  0  0
 10 18  1  0  0  0  0
 17 18  1  0  0  0  0
 18 19  2  0  0  0  0
 19 20  1  0  0  0  0
 13 21  1  0  0  0  0
 14 21  1  0  0  0  0
 20 21  2  0  0  0  0
 20 22  1  0  0  0  0
 22 23  1  0  0  0  0
 15 24  1  0  0  0  0
 17 25  1  0  0  0  0
 25 26  1  0  0  0  0
  4 27  1  0  0  0  0
 13 28  1  0  0  0  0
 24 29  1  0  0  0  0
 24 30  1  0  0  0  0
 24 31  1  0  0  0  0
 26 32  1  0  0  0  0
 26 33  1  0  0  0  0
 26 34  1  0  0  0  0
  1 35  1  0  0  0  0
  2 36  1  0  0  0  0
 16 37  1  0  0  0  0
 16 38  1  0  0  0  0
 16 39  1  0  0  0  0
  9 40  1  0  0  0  0
 12 41  1  0  0  0  0
 12 42  1  0  0  0  0
 12 43  1  0  0  0  0
 19 44  1  0  0  0  0
 14 45  1  0  0  0  0
 14 46  1  0  0  0  0
 23 47  1  0  0  0  0
 23 48  1  0  0  0  0
 23 49  1  0  0  0  0
M  END
$$$$
