obj01
  PyMOL3.1          3D                             0

 30 33  0  0  0  0  0  0  0  0999 V2000
    0.3996    1.0352  -15.2283 C   0  0  0  0  0  0  0  0  0  0  0  0
    0.6924    1.2680  -13.9128 O   0  0  0  0  0  0  0  0  0  0  0  0
   -0.4009    1.1426  -13.0727 C   0  0  0  0  0  0  0  0  0  0  0  0
   -0.2155    1.5608  -11.7307 C   0  0  0  0  0  0  0  0  0  0  0  0
    1.0348    2.0720  -11.3651 O   0  0  0  0  0  0  0  0  0  0  0  0
    2.0824    1.1390  -11.4213 C   0  0  0  0  0  0  0  0  0  0  0  0
   -1.2474    1.4154  -10.8124 C   0  0  0  0  0  0  0  0  0  0  0  0
   -2.5318    0.9074  -11.2537 C   0  0  0  0  0  0  0  0  0  0  0  0
   -2.7005    0.4863  -12.5896 C   0  0  0  0  0  0  0  0  0  0  0  0
   -1.6071    0.5999  -13.5155 C   0  0  0  0  0  0  0  0  0  0  0  0
   -4.0615   -0.0670  -13.0583 C   0  0  0  0  0  0  0  0  0  0  0  0
   -5.2316    0.6219  -12.6550 C   0  0  0  0  0  0  0  0  0  0  0  0
   -6.4625    0.1367  -13.0396 C   0  0  0  0  0  0  0  0  0  0  0  0
   -6.5332   -1.0017  -13.8493 C   0  0  0  0  0  0  0  0  0  0  0  0
   -5.3694   -1.6188  -14.2198 N   0  0  0  0  0  0  0  0  0  0  0  0
   -4.1676   -1.2002  -13.8643 C   0  0  0  0  0  0  0  0  0  0  0  0
   -7.6696    0.8610  -12.6343 C   0  0  0  0  0  0  0  0  0  0  0  0
   -8.7855    0.8650  -13.4506 C   0  0  0  0  0  0  0  0  0  0  0  0
   -9.9703    1.5978  -13.0216 C   0  0  0  0  0  0  0  0  0  0  0  0
   -9.9742    2.3476  -11.8034 C   0  0  0  0  0  0  0  0  0  0  0  0
   -8.8638    2.3598  -11.0503 C   0  0  0  0  0  0  0  0  0  0  0  0
   -7.6862    1.6010  -11.4565 C   0  0  0  0  0  0  0  0  0  0  0  0
  -11.1010    3.0802  -11.3991 N   0  0  0  0  0  0  0  0  0  0  0  0
  -11.2670    3.8330  -10.1732 C   0  0  0  0  0  0  0  0  0  0  0  0
  -12.0698    5.1432  -10.2743 C   0  0  0  0  0  0  0  0  0  0  0  0
  -13.2558    5.0410  -11.0641 N   0  0  0  0  0  0  0  0  0  0  0  0
  -13.4001    3.7790  -11.7321 C   0  0  0  0  0  0  0  0  0  0  0  0
  -12.0806    3.3810  -12.3829 C   0  0  0  0  0  0  0  0  0  0  0  0
   -0.9943    1.8691   -9.5055 O   0  0  0  0  0  0  0  0  0  0  0  0
   -1.7989    1.5024   -8.4756 C   0  0  0  0  0  0  0  0  0  0  0  0
  1  2  1  0  0  0  0
  2  3  1  0  0  0  0
  3  4  1  0  0  0  0
  4  5  1  0  0  0  0
  5  6  1  0  0  0  0
  4  7  2  0  0  0  0
  7  8  1  0  0  0  0
  8  9  2  0  0  0  0
  3 10  2  0  0  0  0
  9 10  1  0  0  0  0
  9 11  1  0  0  0  0
 11 12  2  0  0  0  0
 12 13  1  0  0  0  0
 13 14  2  0  0  0  0
 14 15  1  0  0  0  0
 11 16  1  0  0  0  0
 15 16  2  0  0  0  0
 13 17  1  0  0  0  0
 17 18  1  0  0  0  0
 18 19  2  0  0  0  0
 19 20  1  0  0  0  0
 20 21  2  0  0  0  0
 17 22  2  0  0  0  0
 21 22  1  0  0  0  0
 20 23  1  0  0  0  0
 23 24  1  0  0  0  0
 24 25  1  0  0  0  0
 25 26  1  0  0  0  0
 26 27  1  0  0  0  0
 23 28  1  0  0  0  0
 27 28  1  0  0  0  0
  7 29  1  0  0  0  0
 29 30  1  0  0  0  0
M  END
$$$$
