obj01
  PyMOL3.1          3D                             0

 55 56  0  0  0  0  0  0  0  0999 V2000
  -11.4587    0.3556  -13.7142 C   0  0  0  0  0  0  0  0  0  0  0  0
  -10.0268   -0.1811  -13.8258 C   0  0  0  0  0  0  0  0  0  0  0  0
   -9.1766    0.6560  -12.9983 N   0  0  0  0  0  0  0  0  0  0  0  0
   -7.7432    0.4627  -13.0339 C   0  0  0  0  0  0  0  0  0  0  0  0
   -6.9253    1.3443  -12.3396 C   0  0  0  0  0  0  0  0  0  0  0  0
   -5.5516    1.2062  -12.3472 C   0  0  0  0  0  0  0  0  0  0  0  0
   -4.7383    2.2206  -11.5311 C   0  0  0  0  0  0  0  0  0  0  0  0
   -5.3084    2.8772  -10.5172 C   0  0  0  0  0  0  0  0  0  0  0  0
   -4.4986    3.8627   -9.6573 C   0  0  0  0  0  0  0  0  0  0  0  0
   -4.0198    3.1234   -8.3999 C   0  0  0  0  0  0  0  0  0  0  0  0
   -2.6012    3.5113   -7.9313 C   0  0  0  0  0  0  0  0  0  0  0  0
   -1.6107    2.9304   -8.9753 C   0  0  0  0  0  0  0  0  0  0  0  0
   -1.6582    1.4010   -9.1123 C   0  0  0  0  0  0  0  0  0  0  0  0
   -1.2728    0.6945  -10.1771 C   0  0  0  0  0  0  0  0  0  0  0  0
   -0.6304    1.2889  -11.4396 C   0  0  0  0  0  0  0  0  0  0  0  0
    0.8857    1.1291  -11.3850 C   0  0  0  0  0  0  0  0  0  0  0  0
   -1.2188    0.5838  -12.6722 C   0  0  0  0  0  0  0  0  0  0  0  0
   -0.6490    1.1071  -13.9626 C   0  0  0  0  0  0  0  0  0  0  0  0
   -2.6149    0.8207  -12.5682 O   0  0  0  0  0  0  0  0  0  0  0  0
   -3.4733   -0.1212  -13.1505 C   0  0  0  0  0  0  0  0  0  0  0  0
   -4.9804    0.1361  -13.0692 C   0  0  0  0  0  0  0  0  0  0  0  0
   -5.8176   -0.7536  -13.7580 C   0  0  0  0  0  0  0  0  0  0  0  0
   -7.1957   -0.5949  -13.7508 C   0  0  0  0  0  0  0  0  0  0  0  0
   -5.2447   -1.8078  -14.4744 O   0  0  0  0  0  0  0  0  0  0  0  0
   -3.0249   -1.0647  -13.7214 O   0  0  0  0  0  0  0  0  0  0  0  0
   -0.9781    3.6525   -9.6791 O   0  0  0  0  0  0  0  0  0  0  0  0
   -2.4400    4.8730   -7.8247 O   0  0  0  0  0  0  0  0  0  0  0  0
   -4.9437    3.3718   -7.3800 O   0  0  0  0  0  0  0  0  0  0  0  0
  -11.9492    0.1005  -14.4726 H   0  0  0  0  0  0  0  0  0  0  0  0
  -11.8660    0.0034  -12.9447 H   0  0  0  0  0  0  0  0  0  0  0  0
  -11.4378    1.2928  -13.6556 H   0  0  0  0  0  0  0  0  0  0  0  0
   -9.7407   -0.1451  -14.7191 H   0  0  0  0  0  0  0  0  0  0  0  0
   -9.9940   -1.0695  -13.5239 H   0  0  0  0  0  0  0  0  0  0  0  0
   -9.5245    1.2664  -12.4877 H   0  0  0  0  0  0  0  0  0  0  0  0
   -7.3105    2.0400  -11.8598 H   0  0  0  0  0  0  0  0  0  0  0  0
   -3.8471    2.3785  -11.7438 H   0  0  0  0  0  0  0  0  0  0  0  0
   -6.2076    2.7375  -10.3277 H   0  0  0  0  0  0  0  0  0  0  0  0
   -3.7609    4.1799  -10.1430 H   0  0  0  0  0  0  0  0  0  0  0  0
   -5.0380    4.5913   -9.4130 H   0  0  0  0  0  0  0  0  0  0  0  0
   -4.0053    2.2008   -8.5764 H   0  0  0  0  0  0  0  0  0  0  0  0
   -2.4375    3.2158   -7.0552 H   0  0  0  0  0  0  0  0  0  0  0  0
   -1.9858    0.9231   -8.3851 H   0  0  0  0  0  0  0  0  0  0  0  0
   -1.4019   -0.2267  -10.1536 H   0  0  0  0  0  0  0  0  0  0  0  0
   -0.8171    2.2078  -11.4950 H   0  0  0  0  0  0  0  0  0  0  0  0
    1.2108    1.5050  -10.5884 H   0  0  0  0  0  0  0  0  0  0  0  0
    1.2730    1.5679  -12.1192 H   0  0  0  0  0  0  0  0  0  0  0  0
    1.1060    0.2172  -11.4146 H   0  0  0  0  0  0  0  0  0  0  0  0
   -1.0630   -0.3424  -12.6841 H   0  0  0  0  0  0  0  0  0  0  0  0
   -0.3506    1.9886  -13.8380 H   0  0  0  0  0  0  0  0  0  0  0  0
    0.0730    0.5675  -14.2274 H   0  0  0  0  0  0  0  0  0  0  0  0
   -1.3114    1.0913  -14.6268 H   0  0  0  0  0  0  0  0  0  0  0  0
   -7.7427   -1.1841  -14.2160 H   0  0  0  0  0  0  0  0  0  0  0  0
   -5.0671   -2.4474  -13.9441 H   0  0  0  0  0  0  0  0  0  0  0  0
   -3.1779    5.2304   -7.6007 H   0  0  0  0  0  0  0  0  0  0  0  0
   -5.0883    4.2079   -7.3271 H   0  0  0  0  0  0  0  0  0  0  0  0
  1  2  1  0  0  0  0
  2  3  1  0  0  0  0
  3  4  1  0  0  0  0
  4  5  2  0  0  0  0
  5  6  1  0  0  0  0
  6  7  1  0  0  0  0
  7  8  2  0  0  0  0
  8  9  1  0  0  0  0
  9 10  1  0  0  0  0
 10 11  1  0  0  0  0
 11 12  1  0  0  0  0
 12 13  1  0  0  0  0
 13 14  2  0  0  0  0
 14 15  1  0  0  0  0
 15 16  1  0  0  0  0
 15 17  1  0  0  0  0
 17 18  1  0  0  0  0
 17 19  1  0  0  0  0
 19 20  1  0  0  0  0
  6 21  2  0  0  0  0
 20 21  1  0  0  0  0
 21 22  1  0  0  0  0
  4 23  1  0  0  0  0
 22 23  2  0  0  0  0
 22 24  1  0  0  0  0
 20 25  2  0  0  0  0
 12 26  2  0  0  0  0
 11 27  1  0  0  0  0
 10 28  1  0  0  0  0
  1 29  1  0  0  0  0
  1 30  1  0  0  0  0
  1 31  1  0  0  0  0
  2 32  1  0  0  0  0
  2 33  1  0  0  0  0
  3 34  1  0  0  0  0
  5 35  1  0  0  0  0
  7 36  1  0  0  0  0
  8 37  1  0  0  0  0
  9 38  1  0  0  0  0
  9 39  1  0  0  0  0
 10 40  1  0  0  0  0
 11 41  1  0  0  0  0
 13 42  1  0  0  0  0
 14 43  1  0  0  0  0
 15 44  1  0  0  0  0
 16 45  1  0  0  0  0
 16 46  1  0  0  0  0
 16 47  1  0  0  0  0
 17 48  1  0  0  0  0
 18 49  1  0  0  0  0
 18 50  1  0  0  0  0
 18 51  1  0  0  0  0
 23 52  1  0  0  0  0
 24 53  1  0  0  0  0
 27 54  1  0  0  0  0
 28 55  1  0  0  0  0
M  END
$$$$
