obj01
  PyMOL3.1          3D                             0

 35 40  0  0  0  0  0  0  0  0999 V2000
  -15.2713    2.7757   -9.8465 C   0  0  0  0  0  0  0  0  0  0  0  0
  -14.0233    2.4885  -10.5487 N   0  0  0  0  0  0  0  0  0  0  0  0
  -13.7675    1.2074  -10.8593 C   0  0  0  0  0  0  0  0  0  0  0  0
  -12.5975    0.9427  -11.5518 C   0  0  0  0  0  0  0  0  0  0  0  0
  -11.7449    1.9777  -12.0451 N   0  0  0  0  0  0  0  0  0  0  0  0
  -11.9875    3.2468  -11.6906 C   0  0  0  0  0  0  0  0  0  0  0  0
  -13.1584    3.5319  -10.9634 C   0  0  0  0  0  0  0  0  0  0  0  0
  -10.5721    1.4722  -12.6865 C   0  0  0  0  0  0  0  0  0  0  0  0
   -9.2550    1.8150  -12.2676 C   0  0  0  0  0  0  0  0  0  0  0  0
   -8.1917    1.2140  -12.8447 C   0  0  0  0  0  0  0  0  0  0  0  0
   -8.3161    0.1619  -13.7767 C   0  0  0  0  0  0  0  0  0  0  0  0
   -7.2759   -0.5392  -14.3221 N   0  0  0  0  0  0  0  0  0  0  0  0
   -5.9770   -0.6967  -13.8721 C   0  0  0  0  0  0  0  0  0  0  0  0
   -5.2838   -1.8050  -14.3065 N   0  0  0  0  0  0  0  0  0  0  0  0
   -3.9887   -1.9372  -13.9359 C   0  0  0  0  0  0  0  0  0  0  0  0
   -3.3713   -1.0091  -13.0882 C   0  0  0  0  0  0  0  0  0  0  0  0
   -4.1051    0.0693  -12.6683 C   0  0  0  0  0  0  0  0  0  0  0  0
   -5.4388    0.2311  -13.0354 N   0  0  0  0  0  0  0  0  0  0  0  0
   -3.5170    1.0902  -11.6968 C   0  0  0  0  0  0  0  0  0  0  0  0
   -4.1593    1.7761  -10.7135 C   0  0  0  0  0  0  0  0  0  0  0  0
   -5.6095    1.8845  -10.2634 C   0  0  0  0  0  0  0  0  0  0  0  0
   -5.8177    2.4941   -9.0721 O   0  0  0  0  0  0  0  0  0  0  0  0
   -5.1046    3.7253   -8.9315 C   0  0  0  0  0  0  0  0  0  0  0  0
   -3.5854    3.4547   -8.9435 C   0  0  0  0  0  0  0  0  0  0  0  0
   -3.2224    2.5509  -10.0745 N   0  0  0  0  0  0  0  0  0  0  0  0
   -2.0128    2.3666  -10.5584 N   0  0  0  0  0  0  0  0  0  0  0  0
   -2.1226    1.4287  -11.4996 C   0  0  0  0  0  0  0  0  0  0  0  0
   -1.0075    1.1172  -12.2601 C   0  0  0  0  0  0  0  0  0  0  0  0
   -1.0414    1.0794  -13.6772 C   0  0  0  0  0  0  0  0  0  0  0  0
    0.1040    0.8743  -14.4719 C   0  0  0  0  0  0  0  0  0  0  0  0
    1.3232    0.6618  -13.8420 C   0  0  0  0  0  0  0  0  0  0  0  0
    1.3973    0.6909  -12.4756 N   0  0  0  0  0  0  0  0  0  0  0  0
    0.2949    0.9213  -11.7076 C   0  0  0  0  0  0  0  0  0  0  0  0
   -9.6056   -0.1860  -14.1393 C   0  0  0  0  0  0  0  0  0  0  0  0
  -10.7159    0.4467  -13.6005 C   0  0  0  0  0  0  0  0  0  0  0  0
  1  2  1  0  0  0  0
  2  3  1  0  0  0  0
  3  4  1  0  0  0  0
  4  5  1  0  0  0  0
  5  6  1  0  0  0  0
  2  7  1  0  0  0  0
  6  7  1  0  0  0  0
  5  8  1  0  0  0  0
  8  9  1  0  0  0  0
  9 10  2  0  0  0  0
 10 11  1  0  0  0  0
 11 12  1  0  0  0  0
 12 13  1  0  0  0  0
 13 14  1  0  0  0  0
 14 15  2  0  0  0  0
 15 16  1  0  0  0  0
 16 17  2  0  0  0  0
 13 18  2  0  0  0  0
 17 18  1  0  0  0  0
 17 19  1  0  0  0  0
 19 20  2  0  0  0  0
 20 21  1  0  0  0  0
 21 22  1  0  0  0  0
 22 23  1  0  0  0  0
 23 24  1  0  0  0  0
 20 25  1  0  0  0  0
 24 25  1  0  0  0  0
 25 26  1  0  0  0  0
 19 27  1  0  0  0  0
 26 27  2  0  0  0  0
 27 28  1  0  0  0  0
 28 29  1  0  0  0  0
 29 30  2  0  0  0  0
 30 31  1  0  0  0  0
 31 32  2  0  0  0  0
 28 33  2  0  0  0  0
 32 33  1  0  0  0  0
 11 34  2  0  0  0  0
  8 35  2  0  0  0  0
 34 35  1  0  0  0  0
M  END
$$$$
