obj01
  PyMOL3.1          3D                             0

 38 43  0  0  0  0  0  0  0  0999 V2000
   -1.6238    1.2338   -9.6234 Cl  0  0  0  0  0  0  0  0  0  0  0  0
  -13.7155    5.2424  -13.1942 C   0  0  0  0  0  0  0  0  0  0  0  0
  -13.6536    3.9603  -13.0356 N   0  0  0  0  0  0  0  0  0  0  0  0
  -12.3865    3.6105  -12.5727 C   0  0  0  0  0  0  0  0  0  0  0  0
  -12.3734    2.1778  -12.3251 C   0  0  0  0  0  0  0  0  0  0  0  0
  -12.4862    1.4533  -13.4547 N   0  0  0  0  0  0  0  0  0  0  0  0
  -11.4298    1.4555  -14.0931 C   0  0  0  0  0  0  0  0  0  0  0  0
  -10.2617    0.6281  -13.4040 C   0  0  0  0  0  0  0  0  0  0  0  0
   -9.3486    1.5850  -12.8666 O   0  0  0  0  0  0  0  0  0  0  0  0
   -7.9742    1.2579  -12.9034 C   0  0  0  0  0  0  0  0  0  0  0  0
   -7.0185    2.1913  -12.2750 C   0  0  0  0  0  0  0  0  0  0  0  0
   -5.6728    1.9071  -12.2828 C   0  0  0  0  0  0  0  0  0  0  0  0
   -4.7190    2.7799  -11.6956 O   0  0  0  0  0  0  0  0  0  0  0  0
   -5.3016    3.5771  -10.5492 C   0  0  0  0  0  0  0  0  0  0  0  0
   -5.3067    2.7404   -9.3557 C   0  0  0  0  0  0  0  0  0  0  0  0
   -5.6206    3.5373   -8.0930 C   0  0  0  0  0  0  0  0  0  0  0  0
   -4.7240    4.6653   -7.9470 O   0  0  0  0  0  0  0  0  0  0  0  0
   -4.7730    5.5303   -9.1061 C   0  0  0  0  0  0  0  0  0  0  0  0
   -4.4855    4.7662  -10.4005 C   0  0  0  0  0  0  0  0  0  0  0  0
   -5.2036    0.7124  -12.9106 C   0  0  0  0  0  0  0  0  0  0  0  0
   -3.7942    0.3920  -12.9412 C   0  0  0  0  0  0  0  0  0  0  0  0
   -2.8504    1.3317  -12.3072 N   0  0  0  0  0  0  0  0  0  0  0  0
   -1.4444    1.1520  -12.2840 C   0  0  0  0  0  0  0  0  0  0  0  0
   -0.7025    1.0425  -13.5103 C   0  0  0  0  0  0  0  0  0  0  0  0
   -1.1159    1.0605  -14.8803 O   0  0  0  0  0  0  0  0  0  0  0  0
    0.0527    1.1439  -15.6560 C   0  0  0  0  0  0  0  0  0  0  0  0
    1.1300    0.7918  -14.8141 O   0  0  0  0  0  0  0  0  0  0  0  0
    0.6604    0.8793  -13.4800 C   0  0  0  0  0  0  0  0  0  0  0  0
    1.3496    0.8226  -12.2241 C   0  0  0  0  0  0  0  0  0  0  0  0
    0.6228    0.9350  -11.0275 C   0  0  0  0  0  0  0  0  0  0  0  0
   -0.7708    1.1008  -11.0605 C   0  0  0  0  0  0  0  0  0  0  0  0
   -3.3777   -0.7650  -13.5497 N   0  0  0  0  0  0  0  0  0  0  0  0
   -4.2707   -1.6057  -14.1118 C   0  0  0  0  0  0  0  0  0  0  0  0
   -5.5858   -1.3625  -14.1207 N   0  0  0  0  0  0  0  0  0  0  0  0
   -6.1033   -0.1669  -13.5057 C   0  0  0  0  0  0  0  0  0  0  0  0
   -7.5283    0.1234  -13.4955 C   0  0  0  0  0  0  0  0  0  0  0  0
  -13.5198    1.9196  -14.3434 C   0  0  0  0  0  0  0  0  0  0  0  0
  -14.0266    3.3630  -14.1652 C   0  0  0  0  0  0  0  0  0  0  0  0
  2  3  1  0  0  0  0
  3  4  1  0  0  0  0
  4  5  1  0  0  0  0
  5  6  1  0  0  0  0
  6  7  1  0  0  0  0
  7  8  1  0  0  0  0
  8  9  1  0  0  0  0
  9 10  1  0  0  0  0
 10 11  1  0  0  0  0
 11 12  2  0  0  0  0
 12 13  1  0  0  0  0
 13 14  1  0  0  0  0
 14 15  1  0  0  0  0
 15 16  1  0  0  0  0
 16 17  1  0  0  0  0
 17 18  1  0  0  0  0
 14 19  1  0  0  0  0
 18 19  1  0  0  0  0
 12 20  1  0  0  0  0
 20 21  2  0  0  0  0
 21 22  1  0  0  0  0
 22 23  1  0  0  0  0
 23 24  1  0  0  0  0
 24 25  1  0  0  0  0
 25 26  1  0  0  0  0
 26 27  1  0  0  0  0
 24 28  2  0  0  0  0
 27 28  1  0  0  0  0
 28 29  1  0  0  0  0
 29 30  2  0  0  0  0
  1 31  1  0  0  0  0
 23 31  2  0  0  0  0
 30 31  1  0  0  0  0
 21 32  1  0  0  0  0
 32 33  2  0  0  0  0
 33 34  1  0  0  0  0
 20 35  1  0  0  0  0
 34 35  2  0  0  0  0
 10 36  2  0  0  0  0
 35 36  1  0  0  0  0
  6 37  1  0  0  0  0
  3 38  1  0  0  0  0
 37 38  1  0  0  0  0
M  END
$$$$
