
     RDKit          3D

 39 42  0  0  0  0  0  0  0  0999 V2000
    0.5730    7.5430   -7.2360 C   0  0  0  0  0  0  0  0  0  0  0  0
   -0.1510    6.3350   -7.6980 C   0  0  0  0  0  0  0  0  0  0  0  0
   -0.5180    6.0540   -8.9590 N   0  0  0  0  0  0  0  0  0  0  0  0
   -1.1610    4.8550   -8.9710 C   0  0  0  0  0  0  0  0  0  0  0  0
   -1.7290    4.1080   -9.9730 C   0  0  0  0  0  0  0  0  0  0  0  0
   -2.3220    2.8980   -9.6640 C   0  0  0  0  0  0  0  0  0  0  0  0
   -2.9660    2.1010  -10.7160 C   0  0  0  0  0  0  0  0  0  0  0  0
   -4.2650    2.1630  -11.1050 N   0  0  0  0  0  0  0  0  0  0  0  0
   -4.4880    1.3290  -12.0810 N   0  0  0  0  0  0  0  0  0  0  0  0
   -5.7630    1.1190  -12.7550 C   0  0  0  0  0  0  0  0  0  0  0  0
   -5.5180    1.1440  -14.2690 C   0  0  0  0  0  0  0  0  0  0  0  0
   -6.3720   -0.2210  -12.4010 C   0  0  0  0  0  0  0  0  0  0  0  0
   -3.3600    0.6620  -12.4030 C   0  0  0  0  0  0  0  0  0  0  0  0
   -3.0530   -0.2790  -13.3180 N   0  0  0  0  0  0  0  0  0  0  0  0
   -1.8120   -0.7790  -13.4340 C   0  0  0  0  0  0  0  0  0  0  0  0
   -0.8560   -0.3220  -12.6100 N   0  0  0  0  0  0  0  0  0  0  0  0
   -1.1320    0.6210  -11.6810 C   0  0  0  0  0  0  0  0  0  0  0  0
   -0.0930    1.1210  -10.8260 N   0  0  0  0  0  0  0  0  0  0  0  0
   -2.3880    1.1570  -11.5280 C   0  0  0  0  0  0  0  0  0  0  0  0
   -2.3100    2.5020   -8.3440 C   0  0  0  0  0  0  0  0  0  0  0  0
   -1.7370    3.2460   -7.3170 C   0  0  0  0  0  0  0  0  0  0  0  0
   -1.1520    4.4460   -7.6510 C   0  0  0  0  0  0  0  0  0  0  0  0
   -0.5350    5.3630   -6.9090 O   0  0  0  0  0  0  0  0  0  0  0  0
    0.5859    7.5646   -6.1363 H   0  0  0  0  0  0  0  0  0  0  0  0
    1.6056    7.5188   -7.6144 H   0  0  0  0  0  0  0  0  0  0  0  0
    0.0648    8.4422   -7.6144 H   0  0  0  0  0  0  0  0  0  0  0  0
   -1.7124    4.4688  -11.0120 H   0  0  0  0  0  0  0  0  0  0  0  0
   -6.4552    1.9124  -12.4367 H   0  0  0  0  0  0  0  0  0  0  0  0
   -4.4411    1.2539  -14.4644 H   0  0  0  0  0  0  0  0  0  0  0  0
   -5.8774    0.2045  -14.7142 H   0  0  0  0  0  0  0  0  0  0  0  0
   -6.0598    1.9915  -14.7142 H   0  0  0  0  0  0  0  0  0  0  0  0
   -6.4192   -0.3248  -11.3069 H   0  0  0  0  0  0  0  0  0  0  0  0
   -7.3873   -0.2843  -12.8194 H   0  0  0  0  0  0  0  0  0  0  0  0
   -5.7520   -1.0276  -12.8194 H   0  0  0  0  0  0  0  0  0  0  0  0
   -1.5838   -1.5466  -14.1881 H   0  0  0  0  0  0  0  0  0  0  0  0
    0.6750    1.6850  -11.2430 H   0  0  0  0  0  0  0  0  0  0  0  0
   -0.0680    0.9460   -9.7980 H   0  0  0  0  0  0  0  0  0  0  0  0
   -2.7809    1.5416   -8.0872 H   0  0  0  0  0  0  0  0  0  0  0  0
   -1.7512    2.8882   -6.2769 H   0  0  0  0  0  0  0  0  0  0  0  0
  1  2  1  0
  2  3  2  0
  3  4  1  0
  4  5  2  0
  5  6  1  0
  6  7  1  0
  7  8  2  0
  8  9  1  0
  9 10  1  0
 10 11  1  0
 10 12  1  0
  9 13  1  0
 13 14  2  0
 14 15  1  0
 15 16  2  0
 16 17  1  0
 17 18  1  0
 17 19  2  0
  6 20  2  0
 20 21  1  0
 21 22  2  0
 22 23  1  0
 23  2  1  0
 22  4  1  0
 19  7  1  0
 19 13  1  0
  1 24  1  0
  1 25  1  0
  1 26  1  0
  5 27  1  0
 10 28  1  0
 11 29  1  0
 11 30  1  0
 11 31  1  0
 12 32  1  0
 12 33  1  0
 12 34  1  0
 15 35  1  0
 18 36  1  0
 18 37  1  0
 20 38  1  0
 21 39  1  0
M  END
