obj01
  PyMOL3.1          3D                             0

 31 36  0  0  0  0  0  0  0  0999 V2000
   -0.9663    1.7380   -8.6866 C   0  0  0  0  0  0  0  0  0  0  0  0
   -2.2631    1.2280   -8.9038 C   0  0  0  0  0  0  0  0  0  0  0  0
    0.2408    0.8936  -13.2363 C   0  0  0  0  0  0  0  0  0  0  0  0
   -1.0233    0.4000  -13.5736 C   0  0  0  0  0  0  0  0  0  0  0  0
   -9.1058    2.1707  -11.4567 C   0  0  0  0  0  0  0  0  0  0  0  0
   -9.6080    0.7345  -13.2931 C   0  0  0  0  0  0  0  0  0  0  0  0
  -10.4680    2.4410  -11.2517 C   0  0  0  0  0  0  0  0  0  0  0  0
  -10.9568    1.0113  -13.1071 C   0  0  0  0  0  0  0  0  0  0  0  0
   -0.0535    1.7634   -9.7214 C   0  0  0  0  0  0  0  0  0  0  0  0
   -2.6141    0.8191  -10.2083 C   0  0  0  0  0  0  0  0  0  0  0  0
   -6.2986    1.9284  -12.0746 C   0  0  0  0  0  0  0  0  0  0  0  0
   -3.6114   -1.2443  -13.6338 C   0  0  0  0  0  0  0  0  0  0  0  0
   -6.8590   -0.1099  -13.2150 C   0  0  0  0  0  0  0  0  0  0  0  0
  -14.5732    0.5073  -11.4024 C   0  0  0  0  0  0  0  0  0  0  0  0
  -14.9385    2.9651  -11.1246 C   0  0  0  0  0  0  0  0  0  0  0  0
  -13.7091    1.0556  -12.5372 C   0  0  0  0  0  0  0  0  0  0  0  0
  -13.3999    3.1257  -11.1174 C   0  0  0  0  0  0  0  0  0  0  0  0
   -8.6607    1.3521  -12.4966 C   0  0  0  0  0  0  0  0  0  0  0  0
   -7.2912    1.0667  -12.6164 C   0  0  0  0  0  0  0  0  0  0  0  0
  -11.4005    1.8620  -12.0953 C   0  0  0  0  0  0  0  0  0  0  0  0
   -2.0402    0.3820  -12.5972 C   0  0  0  0  0  0  0  0  0  0  0  0
   -3.3384   -0.1202  -12.9675 C   0  0  0  0  0  0  0  0  0  0  0  0
    0.5161    1.3382  -12.0004 N   0  0  0  0  0  0  0  0  0  0  0  0
   -4.9826    1.6256  -12.1354 N   0  0  0  0  0  0  0  0  0  0  0  0
   -4.9251   -1.3950  -13.7898 N   0  0  0  0  0  0  0  0  0  0  0  0
  -15.3588    1.5844  -10.7602 N   0  0  0  0  0  0  0  0  0  0  0  0
   -0.4041    1.3144  -11.0077 C   0  0  0  0  0  0  0  0  0  0  0  0
   -1.7020    0.8206  -11.2648 C   0  0  0  0  0  0  0  0  0  0  0  0
   -4.5649    0.4838  -12.7352 C   0  0  0  0  0  0  0  0  0  0  0  0
  -12.8039    2.0582  -11.9487 N   0  0  0  0  0  0  0  0  0  0  0  0
   -5.5118   -0.4041  -13.3008 N   0  0  0  0  0  0  0  0  0  0  0  0
  1  2  1  0  0  0  0
  3  4  2  0  0  0  0
  5  7  1  0  0  0  0
  6  8  2  0  0  0  0
  1  9  2  0  0  0  0
  2 10  2  0  0  0  0
 14 16  1  0  0  0  0
 15 17  1  0  0  0  0
  5 18  2  0  0  0  0
  6 18  1  0  0  0  0
 11 19  1  0  0  0  0
 13 19  2  0  0  0  0
 18 19  1  0  0  0  0
  7 20  2  0  0  0  0
  8 20  1  0  0  0  0
  4 21  1  0  0  0  0
 12 22  1  0  0  0  0
 21 22  1  0  0  0  0
  3 23  1  0  0  0  0
 11 24  2  0  0  0  0
 12 25  2  0  0  0  0
 14 26  1  0  0  0  0
 15 26  1  0  0  0  0
  9 27  1  0  0  0  0
 23 27  2  0  0  0  0
 10 28  1  0  0  0  0
 21 28  2  0  0  0  0
 27 28  1  0  0  0  0
 22 29  2  0  0  0  0
 24 29  1  0  0  0  0
 16 30  1  0  0  0  0
 17 30  1  0  0  0  0
 20 30  1  0  0  0  0
 13 31  1  0  0  0  0
 25 31  1  0  0  0  0
 29 31  1  0  0  0  0
M  END
$$$$
