
     RDKit          3D

 38 41  0  0  0  0  0  0  0  0999 V2000
   -5.9700    1.4420  -12.8340 C   0  0  0  0  0  0  0  0  0  0  0  0
   -5.5910    0.7470  -11.5440 C   0  0  0  0  0  0  0  0  0  0  0  0
   -6.5680    1.2040  -10.4740 C   0  0  0  0  0  0  0  0  0  0  0  0
   -4.2770    1.2710  -11.1450 N   0  0  0  0  0  0  0  0  0  0  0  0
   -4.0270    2.1040  -10.1910 N   0  0  0  0  0  0  0  0  0  0  0  0
   -2.6560    2.3370  -10.1520 C   0  0  0  0  0  0  0  0  0  0  0  0
   -2.0530    3.2290   -9.1890 C   0  0  0  0  0  0  0  0  0  0  0  0
   -1.7900    3.2150   -7.8740 C   0  0  0  0  0  0  0  0  0  0  0  0
   -1.1610    4.4080   -7.4450 C   0  0  0  0  0  0  0  0  0  0  0  0
   -0.7070    4.8550   -6.2240 C   0  0  0  0  0  0  0  0  0  0  0  0
   -0.1240    6.1080   -6.1510 C   0  0  0  0  0  0  0  0  0  0  0  0
    0.3450    6.5830   -4.9160 O   0  0  0  0  0  1  0  0  0  0  0  0
   -0.0030    6.8850   -7.2820 C   0  0  0  0  0  0  0  0  0  0  0  0
   -0.4690    6.4040   -8.4880 C   0  0  0  0  0  0  0  0  0  0  0  0
   -1.0600    5.1450   -8.5860 C   0  0  0  0  0  0  0  0  0  0  0  0
   -1.5800    4.4610   -9.6050 N   0  0  0  0  0  0  0  0  0  0  0  0
   -2.1100    1.5870  -11.1450 C   0  0  0  0  0  0  0  0  0  0  0  0
   -0.8660    1.3570  -11.6370 C   0  0  0  0  0  0  0  0  0  0  0  0
    0.2630    1.9790  -11.0900 N   0  0  0  0  0  0  0  0  0  0  0  0
   -0.7070    0.5020  -12.6900 N   0  0  0  0  0  0  0  0  0  0  0  0
   -1.7000   -0.1460  -13.2930 C   0  0  0  0  0  0  0  0  0  0  0  0
   -2.9330    0.0670  -12.8230 N   0  0  0  0  0  0  0  0  0  0  0  0
   -3.1560    0.9040  -11.7820 C   0  0  0  0  0  0  0  0  0  0  0  0
   -6.4850    2.3864  -12.6041 H   0  0  0  0  0  0  0  0  0  0  0  0
   -5.0617    1.6524  -13.4177 H   0  0  0  0  0  0  0  0  0  0  0  0
   -6.6387    0.7924  -13.4177 H   0  0  0  0  0  0  0  0  0  0  0  0
   -5.5915   -0.3463  -11.6649 H   0  0  0  0  0  0  0  0  0  0  0  0
   -6.1422    1.0048   -9.4795 H   0  0  0  0  0  0  0  0  0  0  0  0
   -6.7540    2.2826  -10.5839 H   0  0  0  0  0  0  0  0  0  0  0  0
   -7.5151    0.6555  -10.5839 H   0  0  0  0  0  0  0  0  0  0  0  0
   -2.0344    2.3750   -7.2072 H   0  0  0  0  0  0  0  0  0  0  0  0
   -0.8058    4.2288   -5.3251 H   0  0  0  0  0  0  0  0  0  0  0  0
    0.4613    7.8805   -7.2240 H   0  0  0  0  0  0  0  0  0  0  0  0
   -0.3724    7.0260   -9.3901 H   0  0  0  0  0  0  0  0  0  0  0  0
   -1.6110    4.8260  -10.5660 H   0  0  0  0  0  0  0  0  0  0  0  0
    0.1480    2.6890  -10.3380 H   0  0  0  0  0  0  0  0  0  0  0  0
    1.1900    1.7450  -11.4490 H   0  0  0  0  0  0  0  0  0  0  0  0
   -1.5151   -0.8250  -14.1384 H   0  0  0  0  0  0  0  0  0  0  0  0
  1  2  1  0
  2  3  1  0
  2  4  1  0
  4  5  1  0
  5  6  2  0
  6  7  1  0
  7  8  2  0
  8  9  1  0
  9 10  2  0
 10 11  1  0
 11 12  1  0
 11 13  2  0
 13 14  1  0
 14 15  2  0
 15 16  1  0
  6 17  1  0
 17 18  2  0
 18 19  1  0
 18 20  1  0
 20 21  2  0
 21 22  1  0
 22 23  2  0
 23  4  1  0
 16  7  1  0
 23 17  1  0
 15  9  1  0
  1 24  1  0
  1 25  1  0
  1 26  1  0
  2 27  1  0
  3 28  1  0
  3 29  1  0
  3 30  1  0
  8 31  1  0
 10 32  1  0
 13 33  1  0
 14 34  1  0
 16 35  1  0
 19 36  1  0
 19 37  1  0
 21 38  1  0
M  CHG  1  12  -1
M  END
