obj01
  PyMOL3.1          3D                             0

 56 59  0  0  0  0  0  0  0  0999 V2000
    0.5819    0.7604  -15.5800 C   0  0  0  0  0  0  0  0  0  0  0  0
    1.0379    0.7468  -14.2267 O   0  0  0  0  0  0  0  0  0  0  0  0
   -0.0074    0.6992  -13.2270 C   0  0  0  0  0  0  0  0  0  0  0  0
   -1.3200    0.3415  -13.5754 C   0  0  0  0  0  0  0  0  0  0  0  0
   -2.3360    0.3154  -12.5894 C   0  0  0  0  0  0  0  0  0  0  0  0
   -3.6739   -0.0597  -12.9118 C   0  0  0  0  0  0  0  0  0  0  0  0
   -3.8737   -1.2212  -13.6327 C   0  0  0  0  0  0  0  0  0  0  0  0
   -5.0887   -1.6659  -13.9680 N   0  0  0  0  0  0  0  0  0  0  0  0
   -6.1843   -0.9907  -13.6169 C   0  0  0  0  0  0  0  0  0  0  0  0
   -6.1024    0.1762  -12.8967 C   0  0  0  0  0  0  0  0  0  0  0  0
   -7.3250    0.8305  -12.5502 C   0  0  0  0  0  0  0  0  0  0  0  0
   -7.5322    1.2420  -11.2242 C   0  0  0  0  0  0  0  0  0  0  0  0
   -8.7159    1.8889  -10.8482 C   0  0  0  0  0  0  0  0  0  0  0  0
   -9.7259    2.1028  -11.8014 C   0  0  0  0  0  0  0  0  0  0  0  0
  -10.9840    2.7795  -11.3830 N   0  0  0  0  0  0  0  0  0  0  0  0
  -10.9765    4.2047  -10.9156 C   0  0  0  0  0  0  0  0  0  0  0  0
  -12.2297    4.5495  -10.1031 C   0  0  0  0  0  0  0  0  0  0  0  0
  -13.4280    4.2724  -10.8098 N   0  0  0  0  0  0  0  0  0  0  0  0
  -13.4876    2.9332  -11.2953 C   0  0  0  0  0  0  0  0  0  0  0  0
  -12.2570    2.5536  -12.1286 C   0  0  0  0  0  0  0  0  0  0  0  0
   -9.5451    1.6756  -13.1208 C   0  0  0  0  0  0  0  0  0  0  0  0
   -8.3431    1.0303  -13.4998 C   0  0  0  0  0  0  0  0  0  0  0  0
   -4.8165    0.6777  -12.5289 C   0  0  0  0  0  0  0  0  0  0  0  0
   -4.6657    1.9662  -11.7421 C   0  0  0  0  0  0  0  0  0  0  0  0
   -2.0036    0.6075  -11.2561 C   0  0  0  0  0  0  0  0  0  0  0  0
   -0.6950    0.9687  -10.9071 C   0  0  0  0  0  0  0  0  0  0  0  0
    0.3082    1.0171  -11.8986 C   0  0  0  0  0  0  0  0  0  0  0  0
    1.7433    1.3946  -11.5229 C   0  0  0  0  0  0  0  0  0  0  0  0
    2.8346    1.0300  -12.3963 N   0  0  0  0  0  0  0  0  0  0  0  0
    1.9635    1.9705  -10.5213 O   0  0  0  0  0  0  0  0  0  0  0  0
    0.2531   -0.0891  -15.8080 H   0  0  0  0  0  0  0  0  0  0  0  0
    1.2954    0.9828  -16.1484 H   0  0  0  0  0  0  0  0  0  0  0  0
   -0.1026    1.3964  -15.6732 H   0  0  0  0  0  0  0  0  0  0  0  0
   -1.5218    0.1216  -14.4552 H   0  0  0  0  0  0  0  0  0  0  0  0
   -3.1321   -1.7148  -13.8960 H   0  0  0  0  0  0  0  0  0  0  0  0
   -7.0190   -1.3153  -13.8640 H   0  0  0  0  0  0  0  0  0  0  0  0
   -6.8751    1.0832  -10.5870 H   0  0  0  0  0  0  0  0  0  0  0  0
   -8.8328    2.1753   -9.9723 H   0  0  0  0  0  0  0  0  0  0  0  0
  -10.9344    4.7702  -11.6640 H   0  0  0  0  0  0  0  0  0  0  0  0
  -10.2185    4.3451  -10.3794 H   0  0  0  0  0  0  0  0  0  0  0  0
  -12.2095    5.4635   -9.8889 H   0  0  0  0  0  0  0  0  0  0  0  0
  -12.2236    4.0473   -9.3097 H   0  0  0  0  0  0  0  0  0  0  0  0
  -13.5057    4.8250  -11.4746 H   0  0  0  0  0  0  0  0  0  0  0  0
  -14.2544    2.8391  -11.8290 H   0  0  0  0  0  0  0  0  0  0  0  0
  -13.5485    2.3486  -10.5630 H   0  0  0  0  0  0  0  0  0  0  0  0
  -12.3159    1.6459  -12.3616 H   0  0  0  0  0  0  0  0  0  0  0  0
  -12.2475    3.0730  -12.9108 H   0  0  0  0  0  0  0  0  0  0  0  0
  -10.2144    1.8154  -13.7497 H   0  0  0  0  0  0  0  0  0  0  0  0
   -8.2270    0.7392  -14.3743 H   0  0  0  0  0  0  0  0  0  0  0  0
   -3.8662    2.3920  -11.9893 H   0  0  0  0  0  0  0  0  0  0  0  0
   -5.3919    2.5322  -11.9265 H   0  0  0  0  0  0  0  0  0  0  0  0
   -4.6458    1.7714  -10.8237 H   0  0  0  0  0  0  0  0  0  0  0  0
   -2.6582    0.5606  -10.5986 H   0  0  0  0  0  0  0  0  0  0  0  0
   -0.4881    1.1758  -10.0254 H   0  0  0  0  0  0  0  0  0  0  0  0
    3.6412    1.2361  -12.1830 H   0  0  0  0  0  0  0  0  0  0  0  0
    2.6782    0.6065  -13.1280 H   0  0  0  0  0  0  0  0  0  0  0  0
  1  2  1  0  0  0  0
  2  3  1  0  0  0  0
  3  4  2  0  0  0  0
  4  5  1  0  0  0  0
  5  6  1  0  0  0  0
  6  7  1  0  0  0  0
  7  8  2  0  0  0  0
  8  9  1  0  0  0  0
  9 10  2  0  0  0  0
 10 11  1  0  0  0  0
 11 12  1  0  0  0  0
 12 13  2  0  0  0  0
 13 14  1  0  0  0  0
 14 15  1  0  0  0  0
 15 16  1  0  0  0  0
 16 17  1  0  0  0  0
 17 18  1  0  0  0  0
 18 19  1  0  0  0  0
 15 20  1  0  0  0  0
 19 20  1  0  0  0  0
 14 21  2  0  0  0  0
 11 22  2  0  0  0  0
 21 22  1  0  0  0  0
  6 23  2  0  0  0  0
 10 23  1  0  0  0  0
 23 24  1  0  0  0  0
  5 25  2  0  0  0  0
 25 26  1  0  0  0  0
  3 27  1  0  0  0  0
 26 27  2  0  0  0  0
 27 28  1  0  0  0  0
 28 29  1  0  0  0  0
 28 30  2  0  0  0  0
  1 31  1  0  0  0  0
  1 32  1  0  0  0  0
  1 33  1  0  0  0  0
  4 34  1  0  0  0  0
  7 35  1  0  0  0  0
  9 36  1  0  0  0  0
 12 37  1  0  0  0  0
 13 38  1  0  0  0  0
 16 39  1  0  0  0  0
 16 40  1  0  0  0  0
 17 41  1  0  0  0  0
 17 42  1  0  0  0  0
 18 43  1  0  0  0  0
 19 44  1  0  0  0  0
 19 45  1  0  0  0  0
 20 46  1  0  0  0  0
 20 47  1  0  0  0  0
 21 48  1  0  0  0  0
 22 49  1  0  0  0  0
 24 50  1  0  0  0  0
 24 51  1  0  0  0  0
 24 52  1  0  0  0  0
 25 53  1  0  0  0  0
 26 54  1  0  0  0  0
 29 55  1  0  0  0  0
 29 56  1  0  0  0  0
M  END
$$$$
