obj01
  PyMOL3.1          3D                             0

 60 63  0  0  0  0  0  0  0  0999 V2000
   -1.8619    1.5114   -8.5576 C   0  0  0  0  0  0  0  0  0  0  0  0
   -0.8322    1.6039   -9.5330 O   0  0  0  0  0  0  0  0  0  0  0  0
   -1.2352    1.3119  -10.8348 C   0  0  0  0  0  0  0  0  0  0  0  0
   -2.4788    0.8460  -11.2393 C   0  0  0  0  0  0  0  0  0  0  0  0
   -2.7647    0.6007  -12.5925 C   0  0  0  0  0  0  0  0  0  0  0  0
   -4.0953    0.1224  -12.9246 C   0  0  0  0  0  0  0  0  0  0  0  0
   -4.2271   -1.0772  -13.6188 C   0  0  0  0  0  0  0  0  0  0  0  0
   -5.4063   -1.5992  -13.9330 N   0  0  0  0  0  0  0  0  0  0  0  0
   -6.5168   -0.9178  -13.6352 C   0  0  0  0  0  0  0  0  0  0  0  0
   -6.5134    0.2944  -12.9581 C   0  0  0  0  0  0  0  0  0  0  0  0
   -7.7726    0.9409  -12.6465 C   0  0  0  0  0  0  0  0  0  0  0  0
   -7.9840    1.5070  -11.3940 C   0  0  0  0  0  0  0  0  0  0  0  0
   -9.1989    2.1118  -11.0714 C   0  0  0  0  0  0  0  0  0  0  0  0
  -10.2127    2.1581  -12.0178 C   0  0  0  0  0  0  0  0  0  0  0  0
  -11.5033    2.8198  -11.6675 N   0  0  0  0  0  0  0  0  0  0  0  0
  -11.4574    3.8642  -10.5955 C   0  0  0  0  0  0  0  0  0  0  0  0
  -12.8380    4.3876  -10.1881 C   0  0  0  0  0  0  0  0  0  0  0  0
  -13.6491    4.8050  -11.2773 N   0  0  0  0  0  0  0  0  0  0  0  0
  -13.6591    3.9334  -12.3984 C   0  0  0  0  0  0  0  0  0  0  0  0
  -12.2742    3.4255  -12.8026 C   0  0  0  0  0  0  0  0  0  0  0  0
  -10.0245    1.6013  -13.2708 C   0  0  0  0  0  0  0  0  0  0  0  0
   -8.7847    0.9855  -13.5910 C   0  0  0  0  0  0  0  0  0  0  0  0
   -5.2590    0.8460  -12.6056 C   0  0  0  0  0  0  0  0  0  0  0  0
   -5.1599    2.1744  -11.9079 C   0  0  0  0  0  0  0  0  0  0  0  0
   -1.7783    0.8082  -13.5334 C   0  0  0  0  0  0  0  0  0  0  0  0
   -0.5225    1.2399  -13.1176 C   0  0  0  0  0  0  0  0  0  0  0  0
    0.5283    1.4910  -13.9867 O   0  0  0  0  0  0  0  0  0  0  0  0
    0.2325    1.2999  -15.3552 C   0  0  0  0  0  0  0  0  0  0  0  0
   -0.2776    1.5229  -11.8039 C   0  0  0  0  0  0  0  0  0  0  0  0
    0.9773    1.9964  -11.3843 O   0  0  0  0  0  0  0  0  0  0  0  0
    1.9905    1.0388  -11.2508 C   0  0  0  0  0  0  0  0  0  0  0  0
   -1.5312    1.7958   -7.7260 H   0  0  0  0  0  0  0  0  0  0  0  0
   -2.1512    0.6205   -8.4918 H   0  0  0  0  0  0  0  0  0  0  0  0
   -2.5828    2.0570   -8.8113 H   0  0  0  0  0  0  0  0  0  0  0  0
   -3.1364    0.6931  -10.6011 H   0  0  0  0  0  0  0  0  0  0  0  0
   -3.4576   -1.5316  -13.8729 H   0  0  0  0  0  0  0  0  0  0  0  0
   -7.3344   -1.2741  -13.8951 H   0  0  0  0  0  0  0  0  0  0  0  0
   -7.3042    1.4819  -10.7612 H   0  0  0  0  0  0  0  0  0  0  0  0
   -9.3286    2.4811  -10.2289 H   0  0  0  0  0  0  0  0  0  0  0  0
  -10.9446    4.5871  -10.9056 H   0  0  0  0  0  0  0  0  0  0  0  0
  -11.0434    3.4953   -9.8377 H   0  0  0  0  0  0  0  0  0  0  0  0
  -12.7183    5.1192   -9.6118 H   0  0  0  0  0  0  0  0  0  0  0  0
  -13.2894    3.7039   -9.7290 H   0  0  0  0  0  0  0  0  0  0  0  0
  -13.3714    5.5841  -11.5408 H   0  0  0  0  0  0  0  0  0  0  0  0
  -14.0308    4.3928  -13.1282 H   0  0  0  0  0  0  0  0  0  0  0  0
  -14.1982    3.1925  -12.1935 H   0  0  0  0  0  0  0  0  0  0  0  0
  -11.7810    4.1465  -13.1470 H   0  0  0  0  0  0  0  0  0  0  0  0
  -12.3786    2.7759  -13.4725 H   0  0  0  0  0  0  0  0  0  0  0  0
  -10.7071    1.6302  -13.9004 H   0  0  0  0  0  0  0  0  0  0  0  0
   -8.6526    0.6136  -14.4320 H   0  0  0  0  0  0  0  0  0  0  0  0
   -5.8325    2.7468  -12.2268 H   0  0  0  0  0  0  0  0  0  0  0  0
   -4.3186    2.5555  -12.0776 H   0  0  0  0  0  0  0  0  0  0  0  0
   -5.2666    2.0513  -10.9831 H   0  0  0  0  0  0  0  0  0  0  0  0
   -1.9503    0.6614  -14.4344 H   0  0  0  0  0  0  0  0  0  0  0  0
    0.9666    1.6339  -15.8942 H   0  0  0  0  0  0  0  0  0  0  0  0
   -0.5792    1.7807  -15.5805 H   0  0  0  0  0  0  0  0  0  0  0  0
    0.1073    0.3540  -15.5297 H   0  0  0  0  0  0  0  0  0  0  0  0
    2.7138    1.4052  -10.7184 H   0  0  0  0  0  0  0  0  0  0  0  0
    2.3254    0.7977  -12.1286 H   0  0  0  0  0  0  0  0  0  0  0  0
    1.6344    0.2499  -10.8129 H   0  0  0  0  0  0  0  0  0  0  0  0
  1  2  1  0  0  0  0
  2  3  1  0  0  0  0
  3  4  2  0  0  0  0
  4  5  1  0  0  0  0
  5  6  1  0  0  0  0
  6  7  2  0  0  0  0
  7  8  1  0  0  0  0
  8  9  2  0  0  0  0
  9 10  1  0  0  0  0
 10 11  1  0  0  0  0
 11 12  1  0  0  0  0
 12 13  2  0  0  0  0
 13 14  1  0  0  0  0
 14 15  1  0  0  0  0
 15 16  1  0  0  0  0
 16 17  1  0  0  0  0
 17 18  1  0  0  0  0
 18 19  1  0  0  0  0
 15 20  1  0  0  0  0
 19 20  1  0  0  0  0
 14 21  2  0  0  0  0
 11 22  2  0  0  0  0
 21 22  1  0  0  0  0
  6 23  1  0  0  0  0
 10 23  2  0  0  0  0
 23 24  1  0  0  0  0
  5 25  2  0  0  0  0
 25 26  1  0  0  0  0
 26 27  1  0  0  0  0
 27 28  1  0  0  0  0
  3 29  1  0  0  0  0
 26 29  2  0  0  0  0
 29 30  1  0  0  0  0
 30 31  1  0  0  0  0
  1 32  1  0  0  0  0
  1 33  1  0  0  0  0
  1 34  1  0  0  0  0
  4 35  1  0  0  0  0
  7 36  1  0  0  0  0
  9 37  1  0  0  0  0
 12 38  1  0  0  0  0
 13 39  1  0  0  0  0
 16 40  1  0  0  0  0
 16 41  1  0  0  0  0
 17 42  1  0  0  0  0
 17 43  1  0  0  0  0
 18 44  1  0  0  0  0
 19 45  1  0  0  0  0
 19 46  1  0  0  0  0
 20 47  1  0  0  0  0
 20 48  1  0  0  0  0
 21 49  1  0  0  0  0
 22 50  1  0  0  0  0
 24 51  1  0  0  0  0
 24 52  1  0  0  0  0
 24 53  1  0  0  0  0
 25 54  1  0  0  0  0
 28 55  1  0  0  0  0
 28 56  1  0  0  0  0
 28 57  1  0  0  0  0
 31 58  1  0  0  0  0
 31 59  1  0  0  0  0
 31 60  1  0  0  0  0
M  END
$$$$
