obj01
  PyMOL3.1          3D                             0

 59 62  0  0  0  0  0  0  0  0999 V2000
   -1.6917    1.5194   -8.6127 C   0  0  0  0  0  0  0  0  0  0  0  0
   -0.6848    1.5007   -9.5932 O   0  0  0  0  0  0  0  0  0  0  0  0
   -1.0992    1.2549  -10.9064 C   0  0  0  0  0  0  0  0  0  0  0  0
   -2.3722    0.7956  -11.2594 C   0  0  0  0  0  0  0  0  0  0  0  0
   -2.7082    0.5764  -12.6040 C   0  0  0  0  0  0  0  0  0  0  0  0
   -4.0255    0.1269  -12.9213 C   0  0  0  0  0  0  0  0  0  0  0  0
   -4.2024   -1.0747  -13.5810 C   0  0  0  0  0  0  0  0  0  0  0  0
   -5.3843   -1.5797  -13.8864 N   0  0  0  0  0  0  0  0  0  0  0  0
   -6.4954   -0.9332  -13.5658 C   0  0  0  0  0  0  0  0  0  0  0  0
   -6.4637    0.2915  -12.9071 C   0  0  0  0  0  0  0  0  0  0  0  0
   -7.7027    0.9213  -12.5948 C   0  0  0  0  0  0  0  0  0  0  0  0
   -8.7495    0.9567  -13.5105 C   0  0  0  0  0  0  0  0  0  0  0  0
   -9.9712    1.5635  -13.2009 C   0  0  0  0  0  0  0  0  0  0  0  0
  -10.1809    2.1306  -11.9541 C   0  0  0  0  0  0  0  0  0  0  0  0
  -11.5090    2.7911  -11.6269 C   0  0  0  0  0  0  0  0  0  0  0  0
  -12.1259    3.6470  -12.7553 C   0  0  0  0  0  0  0  0  0  0  0  0
  -13.4177    4.2332  -12.5125 C   0  0  0  0  0  0  0  0  0  0  0  0
  -13.9751    3.8237  -11.0648 N   0  0  0  0  0  0  0  0  0  0  0  0
  -13.1336    3.9578  -10.0681 C   0  0  0  0  0  0  0  0  0  0  0  0
  -11.6560    3.3016  -10.3380 C   0  0  0  0  0  0  0  0  0  0  0  0
   -9.1507    2.0918  -11.0219 C   0  0  0  0  0  0  0  0  0  0  0  0
   -7.9397    1.4966  -11.3472 C   0  0  0  0  0  0  0  0  0  0  0  0
   -5.2046    0.8288  -12.5742 C   0  0  0  0  0  0  0  0  0  0  0  0
   -5.1031    2.1870  -11.8876 C   0  0  0  0  0  0  0  0  0  0  0  0
   -1.7328    0.7672  -13.5710 C   0  0  0  0  0  0  0  0  0  0  0  0
   -0.4557    1.2127  -13.2085 C   0  0  0  0  0  0  0  0  0  0  0  0
    0.5485    1.4374  -14.1484 O   0  0  0  0  0  0  0  0  0  0  0  0
    0.2204    1.2743  -15.4881 C   0  0  0  0  0  0  0  0  0  0  0  0
   -0.1462    1.4538  -11.8802 C   0  0  0  0  0  0  0  0  0  0  0  0
    1.1149    1.9084  -11.4994 O   0  0  0  0  0  0  0  0  0  0  0  0
    2.1035    0.9246  -11.3938 C   0  0  0  0  0  0  0  0  0  0  0  0
  -14.2237    2.9927  -11.0973 H   0  0  0  0  0  0  0  0  0  0  0  0
   -1.3575    1.9127   -7.8283 H   0  0  0  0  0  0  0  0  0  0  0  0
   -2.4237    2.0176   -8.9253 H   0  0  0  0  0  0  0  0  0  0  0  0
   -1.9666    0.6404   -8.4296 H   0  0  0  0  0  0  0  0  0  0  0  0
   -3.0023    0.6338  -10.5962 H   0  0  0  0  0  0  0  0  0  0  0  0
   -3.4456   -1.5556  -13.8240 H   0  0  0  0  0  0  0  0  0  0  0  0
   -7.3166   -1.3073  -13.7865 H   0  0  0  0  0  0  0  0  0  0  0  0
   -8.6345    0.5685  -14.3466 H   0  0  0  0  0  0  0  0  0  0  0  0
  -10.6481    1.5866  -13.8368 H   0  0  0  0  0  0  0  0  0  0  0  0
  -11.6797    3.7785  -13.5606 H   0  0  0  0  0  0  0  0  0  0  0  0
  -13.3459    5.1682  -12.5616 H   0  0  0  0  0  0  0  0  0  0  0  0
  -14.0193    3.9360  -13.1694 H   0  0  0  0  0  0  0  0  0  0  0  0
  -13.5055    3.5459   -9.3107 H   0  0  0  0  0  0  0  0  0  0  0  0
  -13.0226    4.8744   -9.8972 H   0  0  0  0  0  0  0  0  0  0  0  0
  -11.5203    2.6055   -9.7227 H   0  0  0  0  0  0  0  0  0  0  0  0
  -11.0045    3.9640  -10.2019 H   0  0  0  0  0  0  0  0  0  0  0  0
   -9.2729    2.4647  -10.1799 H   0  0  0  0  0  0  0  0  0  0  0  0
   -7.2629    1.4811  -10.7109 H   0  0  0  0  0  0  0  0  0  0  0  0
   -5.7492    2.7672  -12.2448 H   0  0  0  0  0  0  0  0  0  0  0  0
   -5.2504    2.0836  -10.9660 H   0  0  0  0  0  0  0  0  0  0  0  0
   -4.2472    2.5462  -12.0295 H   0  0  0  0  0  0  0  0  0  0  0  0
   -1.9275    0.5986  -14.4636 H   0  0  0  0  0  0  0  0  0  0  0  0
    1.0121    1.4050  -16.0331 H   0  0  0  0  0  0  0  0  0  0  0  0
   -0.4547    1.9248  -15.7371 H   0  0  0  0  0  0  0  0  0  0  0  0
   -0.1254    0.3792  -15.6296 H   0  0  0  0  0  0  0  0  0  0  0  0
    2.2747    0.7375  -10.4576 H   0  0  0  0  0  0  0  0  0  0  0  0
    2.9188    1.2390  -11.8150 H   0  0  0  0  0  0  0  0  0  0  0  0
    1.8027    0.1152  -11.8356 H   0  0  0  0  0  0  0  0  0  0  0  0
  1  2  1  0  0  0  0
  2  3  1  0  0  0  0
  3  4  2  0  0  0  0
  4  5  1  0  0  0  0
  5  6  1  0  0  0  0
  6  7  1  0  0  0  0
  7  8  2  0  0  0  0
  8  9  1  0  0  0  0
  9 10  2  0  0  0  0
 10 11  1  0  0  0  0
 11 12  1  0  0  0  0
 12 13  2  0  0  0  0
 13 14  1  0  0  0  0
 14 15  1  0  0  0  0
 15 16  1  0  0  0  0
 16 17  1  0  0  0  0
 17 18  1  0  0  0  0
 18 19  1  0  0  0  0
 15 20  1  0  0  0  0
 19 20  1  0  0  0  0
 14 21  2  0  0  0  0
 11 22  2  0  0  0  0
 21 22  1  0  0  0  0
  6 23  2  0  0  0  0
 10 23  1  0  0  0  0
 23 24  1  0  0  0  0
  5 25  2  0  0  0  0
 25 26  1  0  0  0  0
 26 27  1  0  0  0  0
 27 28  1  0  0  0  0
  3 29  1  0  0  0  0
 26 29  2  0  0  0  0
 29 30  1  0  0  0  0
 30 31  1  0  0  0  0
 18 32  1  0  0  0  0
  1 33  1  0  0  0  0
  1 34  1  0  0  0  0
  1 35  1  0  0  0  0
  4 36  1  0  0  0  0
  7 37  1  0  0  0  0
  9 38  1  0  0  0  0
 12 39  1  0  0  0  0
 13 40  1  0  0  0  0
 16 41  1  0  0  0  0
 17 42  1  0  0  0  0
 17 43  1  0  0  0  0
 19 44  1  0  0  0  0
 19 45  1  0  0  0  0
 20 46  1  0  0  0  0
 20 47  1  0  0  0  0
 21 48  1  0  0  0  0
 22 49  1  0  0  0  0
 24 50  1  0  0  0  0
 24 51  1  0  0  0  0
 24 52  1  0  0  0  0
 25 53  1  0  0  0  0
 28 54  1  0  0  0  0
 28 55  1  0  0  0  0
 28 56  1  0  0  0  0
 31 57  1  0  0  0  0
 31 58  1  0  0  0  0
 31 59  1  0  0  0  0
M  END
$$$$
