obj01
  PyMOL3.1          3D                             0

 30 34  0  0  0  0  0  0  0  0999 V2000
  -15.4417    4.9034  -14.2387 C   0  0  0  0  0  0  0  0  0  0  0  0
  -14.1669    4.1830  -14.1348 N   0  0  0  0  0  0  0  0  0  0  0  0
  -12.5238    2.1302  -12.8906 O   0  0  0  0  0  0  0  0  0  0  0  0
  -15.1500    6.4158  -14.1047 C   0  0  0  0  0  0  0  0  0  0  0  0
   -4.9738    1.2709  -12.4301 N   0  0  0  0  0  0  0  0  0  0  0  0
  -13.9324    6.8527  -14.9538 C   0  0  0  0  0  0  0  0  0  0  0  0
   -5.3595   -0.7231  -13.7122 N   0  0  0  0  0  0  0  0  0  0  0  0
  -13.4327    5.7719  -15.9445 C   0  0  0  0  0  0  0  0  0  0  0  0
   -4.7032   -1.6170  -14.2386 N   0  0  0  0  0  0  0  0  0  0  0  0
  -13.2647    4.3797  -15.2867 C   0  0  0  0  0  0  0  0  0  0  0  0
    0.4070    1.2837  -12.0537 N   0  0  0  0  0  0  0  0  0  0  0  0
  -14.5294    2.7311  -14.1957 C   0  0  0  0  0  0  0  0  0  0  0  0
  -13.2735    1.8209  -14.1086 C   0  0  0  0  0  0  0  0  0  0  0  0
  -11.2086    1.7199  -12.9588 C   0  0  0  0  0  0  0  0  0  0  0  0
  -10.7629    0.7514  -13.8875 C   0  0  0  0  0  0  0  0  0  0  0  0
   -9.4179    0.3819  -13.9241 C   0  0  0  0  0  0  0  0  0  0  0  0
  -10.3098    2.2936  -12.0683 C   0  0  0  0  0  0  0  0  0  0  0  0
   -8.9720    1.9296  -12.0984 C   0  0  0  0  0  0  0  0  0  0  0  0
   -8.5329    0.9462  -12.9950 C   0  0  0  0  0  0  0  0  0  0  0  0
   -7.1819    0.6225  -13.0192 C   0  0  0  0  0  0  0  0  0  0  0  0
   -6.7240   -0.4900  -13.7010 C   0  0  0  0  0  0  0  0  0  0  0  0
   -6.2895    1.4822  -12.4056 C   0  0  0  0  0  0  0  0  0  0  0  0
   -4.4835    0.1832  -13.0711 C   0  0  0  0  0  0  0  0  0  0  0  0
   -3.4048   -1.4154  -14.0123 C   0  0  0  0  0  0  0  0  0  0  0  0
   -3.2325   -0.3080  -13.2875 C   0  0  0  0  0  0  0  0  0  0  0  0
   -2.0077    0.2500  -12.8564 C   0  0  0  0  0  0  0  0  0  0  0  0
   -0.9313    0.3483  -13.7520 C   0  0  0  0  0  0  0  0  0  0  0  0
    0.2606    0.8817  -13.3220 C   0  0  0  0  0  0  0  0  0  0  0  0
   -0.5713    1.2000  -11.1709 C   0  0  0  0  0  0  0  0  0  0  0  0
   -1.7891    0.6897  -11.5541 C   0  0  0  0  0  0  0  0  0  0  0  0
  1  2  1  0  0  0  0
  1  4  1  0  0  0  0
  4  6  1  0  0  0  0
  6  8  1  0  0  0  0
  7  9  1  0  0  0  0
  2 10  1  0  0  0  0
  8 10  1  0  0  0  0
  2 12  1  0  0  0  0
  3 13  1  0  0  0  0
 12 13  1  0  0  0  0
  3 14  1  0  0  0  0
 14 15  2  0  0  0  0
 15 16  1  0  0  0  0
 14 17  1  0  0  0  0
 17 18  2  0  0  0  0
 16 19  2  0  0  0  0
 18 19  1  0  0  0  0
 19 20  1  0  0  0  0
  7 21  1  0  0  0  0
 20 21  2  0  0  0  0
  5 22  2  0  0  0  0
 20 22  1  0  0  0  0
  5 23  1  0  0  0  0
  7 23  1  0  0  0  0
  9 24  2  0  0  0  0
 23 25  2  0  0  0  0
 24 25  1  0  0  0  0
 25 26  1  0  0  0  0
 26 27  2  0  0  0  0
 11 28  2  0  0  0  0
 27 28  1  0  0  0  0
 11 29  1  0  0  0  0
 26 30  1  0  0  0  0
 29 30  2  0  0  0  0
M  END
$$$$
