obj01
  PyMOL3.1          3D                             0

 34 38  0  0  0  0  0  0  0  0999 V2000
   -0.0127    1.1860  -15.5132 C   0  0  0  0  0  0  0  0  0  0  0  0
    0.4578    1.1749  -14.1645 O   0  0  0  0  0  0  0  0  0  0  0  0
   -0.4908    1.0655  -13.1520 C   0  0  0  0  0  0  0  0  0  0  0  0
   -0.1458    1.3710  -11.7901 C   0  0  0  0  0  0  0  0  0  0  0  0
    1.1406    1.7789  -11.4910 O   0  0  0  0  0  0  0  0  0  0  0  0
    2.1022    0.8306  -11.0689 C   0  0  0  0  0  0  0  0  0  0  0  0
   -1.1791    1.2372  -10.8101 C   0  0  0  0  0  0  0  0  0  0  0  0
   -0.8990    1.5143   -9.4734 O   0  0  0  0  0  0  0  0  0  0  0  0
   -1.9322    1.8261   -8.5315 C   0  0  0  0  0  0  0  0  0  0  0  0
   -2.4656    0.8090  -11.2082 C   0  0  0  0  0  0  0  0  0  0  0  0
   -2.8610    0.5038  -12.5411 C   0  0  0  0  0  0  0  0  0  0  0  0
   -4.3284    0.0629  -12.7994 C   0  0  0  0  0  0  0  0  0  0  0  0
   -4.6377   -1.2161  -13.3595 C   0  0  0  0  0  0  0  0  0  0  0  0
   -5.8853   -1.7068  -13.6099 N   0  0  0  0  0  0  0  0  0  0  0  0
   -6.9523   -0.9472  -13.3150 C   0  0  0  0  0  0  0  0  0  0  0  0
   -6.8056    0.3573  -12.7613 C   0  0  0  0  0  0  0  0  0  0  0  0
   -5.5103    0.8057  -12.4840 C   0  0  0  0  0  0  0  0  0  0  0  0
   -5.3859    2.2217  -11.9036 C   0  0  0  0  0  0  0  0  0  0  0  0
   -5.8790    2.4358  -10.4897 N   0  0  0  0  0  0  0  0  0  0  0  0
   -6.1691    3.9163  -10.4549 C   0  0  0  0  0  0  0  0  0  0  0  0
   -7.1432    1.7380  -10.1193 C   0  0  0  0  0  0  0  0  0  0  0  0
   -8.2061    1.8216  -11.1958 C   0  0  0  0  0  0  0  0  0  0  0  0
   -7.9701    1.1471  -12.4060 C   0  0  0  0  0  0  0  0  0  0  0  0
   -9.0082    1.2639  -13.3656 C   0  0  0  0  0  0  0  0  0  0  0  0
  -10.1514    1.9637  -13.1648 C   0  0  0  0  0  0  0  0  0  0  0  0
  -10.4471    2.6711  -11.9563 C   0  0  0  0  0  0  0  0  0  0  0  0
  -11.6521    3.4471  -11.6846 N   0  0  0  0  0  0  0  0  0  0  0  0
  -12.9723    3.3433  -12.3729 C   0  0  0  0  0  0  0  0  0  0  0  0
  -13.7140    4.7110  -12.5053 C   0  0  0  0  0  0  0  0  0  0  0  0
  -13.8995    5.4093  -11.2118 N   0  0  0  0  0  0  0  0  0  0  0  0
  -12.6213    5.4878  -10.4758 C   0  0  0  0  0  0  0  0  0  0  0  0
  -11.9143    4.1127  -10.3513 C   0  0  0  0  0  0  0  0  0  0  0  0
   -9.3937    2.5441  -11.0046 C   0  0  0  0  0  0  0  0  0  0  0  0
   -1.8192    0.6499  -13.4805 C   0  0  0  0  0  0  0  0  0  0  0  0
  1  2  1  0  0  0  0
  2  3  1  0  0  0  0
  3  4  2  0  0  0  0
  4  5  1  0  0  0  0
  5  6  1  0  0  0  0
  4  7  1  0  0  0  0
  7  8  1  0  0  0  0
  8  9  1  0  0  0  0
  7 10  2  0  0  0  0
 10 11  1  0  0  0  0
 11 12  1  0  0  0  0
 12 13  1  0  0  0  0
 13 14  2  0  0  0  0
 14 15  1  0  0  0  0
 15 16  2  0  0  0  0
 12 17  2  0  0  0  0
 16 17  1  0  0  0  0
 17 18  1  0  0  0  0
 18 19  1  0  0  0  0
 19 20  1  0  0  0  0
 19 21  1  0  0  0  0
 21 22  1  0  0  0  0
 16 23  1  0  0  0  0
 22 23  2  0  0  0  0
 23 24  1  0  0  0  0
 24 25  2  0  0  0  0
 25 26  1  0  0  0  0
 26 27  1  0  0  0  0
 27 28  1  0  0  0  0
 28 29  1  0  0  0  0
 29 30  1  0  0  0  0
 30 31  1  0  0  0  0
 27 32  1  0  0  0  0
 31 32  1  0  0  0  0
 22 33  1  0  0  0  0
 26 33  2  0  0  0  0
  3 34  1  0  0  0  0
 11 34  2  0  0  0  0
M  END
$$$$
