
     RDKit          3D

 54 61  0  0  0  0  0  0  0  0999 V2000
   -0.6300    4.1390   -9.9770 C   0  0  0  0  0  0  0  0  0  0  0  0
   -1.7570    3.1320  -10.0460 C   0  0  0  0  0  0  0  0  0  0  0  0
   -2.9490    3.8310  -10.3340 O   0  0  0  0  0  0  0  0  0  0  0  0
   -4.0000    3.2540   -9.6910 C   0  0  0  0  0  0  0  0  0  0  0  0
   -3.4940    2.4510   -8.5220 C   0  0  0  0  0  0  0  0  0  0  0  0
   -2.0110    2.6950   -8.6240 C   0  0  0  0  0  0  0  0  0  0  0  0
   -1.7470    3.7710   -7.7740 O   0  0  0  0  0  0  0  0  0  0  0  0
   -1.1780    1.5470   -8.1760 C   0  0  0  0  0  0  0  0  0  0  0  0
   -1.8360    0.3370   -8.1330 O   0  0  0  0  0  0  0  0  0  0  0  0
   -4.6610    2.2680  -10.5720 N   0  0  0  0  0  0  0  0  0  0  0  0
   -5.9500    2.0160  -10.7050 C   0  0  0  0  0  0  0  0  0  0  0  0
   -7.0240    2.6170  -10.0600 C   0  0  0  0  0  0  0  0  0  0  0  0
   -8.2800    2.1730  -10.3740 C   0  0  0  0  0  0  0  0  0  0  0  0
   -8.4520    1.1740  -11.2910 C   0  0  0  0  0  0  0  0  0  0  0  0
   -7.3700    0.5680  -11.9410 C   0  0  0  0  0  0  0  0  0  0  0  0
   -6.1150    1.0060  -11.6330 C   0  0  0  0  0  0  0  0  0  0  0  0
   -4.8720    0.6560  -12.0570 C   0  0  0  0  0  0  0  0  0  0  0  0
   -4.3580   -0.2880  -12.9520 C   0  0  0  0  0  0  0  0  0  0  0  0
   -2.9910   -0.3560  -13.1030 C   0  0  0  0  0  0  0  0  0  0  0  0
   -2.0840    0.4420  -12.4320 C   0  0  0  0  0  0  0  0  0  0  0  0
   -0.7260    0.5960  -12.3580 C   0  0  0  0  0  0  0  0  0  0  0  0
    0.2950   -0.0700  -13.0040 C   0  0  0  0  0  0  0  0  0  0  0  0
    1.6240    0.2240  -12.7820 C   0  0  0  0  0  0  0  0  0  0  0  0
    1.9340    1.2210  -11.8800 C   0  0  0  0  0  0  0  0  0  0  0  0
    0.9350    1.8900  -11.2340 C   0  0  0  0  0  0  0  0  0  0  0  0
   -0.4010    1.5970  -11.4560 C   0  0  0  0  0  0  0  0  0  0  0  0
   -1.5760    2.0530  -10.9830 N   0  0  0  0  0  0  0  0  0  0  0  0
   -2.6130    1.3630  -11.5580 C   0  0  0  0  0  0  0  0  0  0  0  0
   -3.9800    1.4590  -11.3800 C   0  0  0  0  0  0  0  0  0  0  0  0
   -2.6820   -1.4140  -14.0870 C   0  0  0  0  0  0  0  0  0  0  0  0
   -3.9350   -1.9460  -14.4970 N   0  0  0  0  0  0  0  0  0  0  0  0
   -5.0080   -1.2630  -13.8040 C   0  0  0  0  0  0  0  0  0  0  0  0
   -6.2230   -1.5340  -13.9730 O   0  0  0  0  0  0  0  0  0  0  0  0
   -0.3921    4.3515   -8.9243 H   0  0  0  0  0  0  0  0  0  0  0  0
    0.2592    3.7291  -10.4783 H   0  0  0  0  0  0  0  0  0  0  0  0
   -0.9377    5.0686  -10.4783 H   0  0  0  0  0  0  0  0  0  0  0  0
   -4.6858    4.0588   -9.3879 H   0  0  0  0  0  0  0  0  0  0  0  0
   -3.9000    2.8239   -7.5701 H   0  0  0  0  0  0  0  0  0  0  0  0
   -3.7808    1.3893   -8.5439 H   0  0  0  0  0  0  0  0  0  0  0  0
   -2.2140    3.6910   -6.9040 H   0  0  0  0  0  0  0  0  0  0  0  0
   -0.3285    1.4501   -8.8681 H   0  0  0  0  0  0  0  0  0  0  0  0
   -0.8732    1.7704   -7.1429 H   0  0  0  0  0  0  0  0  0  0  0  0
   -1.3860   -0.3160   -8.7240 H   0  0  0  0  0  0  0  0  0  0  0  0
   -6.8704    3.4201   -9.3241 H   0  0  0  0  0  0  0  0  0  0  0  0
   -9.1567    2.6230   -9.8853 H   0  0  0  0  0  0  0  0  0  0  0  0
   -9.4721    0.8357  -11.5255 H   0  0  0  0  0  0  0  0  0  0  0  0
   -7.5266   -0.2352  -12.6761 H   0  0  0  0  0  0  0  0  0  0  0  0
    0.0400   -0.8637  -13.7216 H   0  0  0  0  0  0  0  0  0  0  0  0
    2.4179   -0.3233  -13.3114 H   0  0  0  0  0  0  0  0  0  0  0  0
    2.9854    1.4765  -11.6817 H   0  0  0  0  0  0  0  0  0  0  0  0
    1.1974    2.6828  -10.5181 H   0  0  0  0  0  0  0  0  0  0  0  0
   -2.1465   -0.9896  -14.9490 H   0  0  0  0  0  0  0  0  0  0  0  0
   -2.0367   -2.1919  -13.6529 H   0  0  0  0  0  0  0  0  0  0  0  0
   -4.0930   -2.7100  -15.1880 H   0  0  0  0  0  0  0  0  0  0  0  0
  1  2  1  0
  2  3  1  0
  3  4  1  0
  4  5  1  0
  5  6  1  0
  6  7  1  0
  6  8  1  0
  8  9  1  0
  4 10  1  0
 10 11  1  0
 11 12  2  0
 12 13  1  0
 13 14  2  0
 14 15  1  0
 15 16  2  0
 16 17  1  0
 17 18  2  0
 18 19  1  0
 19 20  2  0
 20 21  1  0
 21 22  2  0
 22 23  1  0
 23 24  2  0
 24 25  1  0
 25 26  2  0
 26 27  1  0
 27 28  1  0
 28 29  2  0
 19 30  1  0
 30 31  1  0
 31 32  1  0
 32 33  2  0
  6  2  1  0
 29 10  1  0
 27  2  1  0
 16 11  1  0
 29 17  1  0
 32 18  1  0
 28 20  1  0
 26 21  1  0
  1 34  1  0
  1 35  1  0
  1 36  1  0
  4 37  1  0
  5 38  1  0
  5 39  1  0
  7 40  1  0
  8 41  1  0
  8 42  1  0
  9 43  1  0
 12 44  1  0
 13 45  1  0
 14 46  1  0
 15 47  1  0
 22 48  1  0
 23 49  1  0
 24 50  1  0
 25 51  1  0
 30 52  1  0
 30 53  1  0
 31 54  1  0
M  END
