
     RDKit          3D

 41 43  0  0  0  0  0  0  0  0999 V2000
   -5.1940    2.7460   -8.4830 C   0  0  0  0  0  0  0  0  0  0  0  0
   -6.0380    1.7470   -9.2130 C   0  0  0  0  0  0  0  0  0  0  0  0
   -6.8740    2.4630  -10.2600 C   0  0  0  0  0  0  0  0  0  0  0  0
   -7.4870    1.2540  -11.4470 S   0  0  0  0  0  6  0  0  0  0  0  0
   -7.4230   -0.0860  -10.8040 O   0  0  0  0  0  0  0  0  0  0  0  0
   -8.8600    1.6670  -11.8620 O   0  0  0  0  0  0  0  0  0  0  0  0
   -6.4460    1.3870  -12.8180 N   0  0  0  0  0  0  0  0  0  0  0  0
   -5.2140    0.7160  -12.9350 C   0  0  0  0  0  0  0  0  0  0  0  0
   -5.1330   -0.4640  -13.6410 C   0  0  0  0  0  0  0  0  0  0  0  0
   -3.9160   -1.1220  -13.7780 C   0  0  0  0  0  0  0  0  0  0  0  0
   -2.7940   -0.5680  -13.1920 C   0  0  0  0  0  0  0  0  0  0  0  0
   -1.5650   -1.1690  -13.3100 F   0  0  0  0  0  0  0  0  0  0  0  0
   -2.8490    0.6100  -12.4800 C   0  0  0  0  0  0  0  0  0  0  0  0
   -1.6560    1.1440  -11.8510 C   0  0  0  0  0  0  0  0  0  0  0  0
   -0.6640    1.4480  -12.5450 O   0  0  0  0  0  0  0  0  0  0  0  0
   -1.6220    1.3280  -10.3830 C   0  0  0  0  0  0  0  0  0  0  0  0
   -1.6540    0.3490   -9.4250 C   0  0  0  0  0  0  0  0  0  0  0  0
   -1.6020    0.9110   -8.1900 N   0  0  0  0  0  0  0  0  0  0  0  0
   -1.5380    2.2530   -8.3720 C   0  0  0  0  0  0  0  0  0  0  0  0
   -1.4770    3.1980   -7.4410 N   0  0  0  0  0  0  0  0  0  0  0  0
   -1.4210    4.4930   -7.7880 C   0  0  0  0  0  0  0  0  0  0  0  0
   -1.4290    4.8320   -9.1270 C   0  0  0  0  0  0  0  0  0  0  0  0
   -1.3590    6.5250   -9.5590 Cl  0  0  0  0  0  0  0  0  0  0  0  0
   -1.4920    3.8630  -10.0880 C   0  0  0  0  0  0  0  0  0  0  0  0
   -1.5500    2.5230   -9.7410 C   0  0  0  0  0  0  0  0  0  0  0  0
   -4.0800    1.2510  -12.3580 C   0  0  0  0  0  0  0  0  0  0  0  0
   -4.1270    2.4000  -11.6630 F   0  0  0  0  0  0  0  0  0  0  0  0
   -5.3136    2.6044   -7.3987 H   0  0  0  0  0  0  0  0  0  0  0  0
   -4.1382    2.6040   -8.7571 H   0  0  0  0  0  0  0  0  0  0  0  0
   -5.5103    3.7633   -8.7571 H   0  0  0  0  0  0  0  0  0  0  0  0
   -5.3889    1.0073   -9.7045 H   0  0  0  0  0  0  0  0  0  0  0  0
   -6.7011    1.2350   -8.5002 H   0  0  0  0  0  0  0  0  0  0  0  0
   -7.7229    2.9658   -9.7736 H   0  0  0  0  0  0  0  0  0  0  0  0
   -6.2587    3.2137  -10.7777 H   0  0  0  0  0  0  0  0  0  0  0  0
   -6.7820    2.0190  -13.6030 H   0  0  0  0  0  0  0  0  0  0  0  0
   -6.0380   -0.8889  -14.0998 H   0  0  0  0  0  0  0  0  0  0  0  0
   -3.8477   -2.0643  -14.3414 H   0  0  0  0  0  0  0  0  0  0  0  0
   -1.7130   -0.7308   -9.6263 H   0  0  0  0  0  0  0  0  0  0  0  0
   -1.6070    0.4030   -7.2840 H   0  0  0  0  0  0  0  0  0  0  0  0
   -1.3694    5.2748   -7.0159 H   0  0  0  0  0  0  0  0  0  0  0  0
   -1.4967    4.1501  -11.1499 H   0  0  0  0  0  0  0  0  0  0  0  0
  1  2  1  0
  2  3  1  0
  3  4  1  0
  4  5  2  0
  4  6  2  0
  4  7  1  0
  7  8  1  0
  8  9  2  0
  9 10  1  0
 10 11  2  0
 11 12  1  0
 11 13  1  0
 13 14  1  0
 14 15  2  0
 14 16  1  0
 16 17  2  0
 17 18  1  0
 18 19  1  0
 19 20  2  0
 20 21  1  0
 21 22  2  0
 22 23  1  0
 22 24  1  0
 24 25  2  0
 13 26  2  0
 26 27  1  0
 26  8  1  0
 25 16  1  0
 25 19  1  0
  1 28  1  0
  1 29  1  0
  1 30  1  0
  2 31  1  0
  2 32  1  0
  3 33  1  0
  3 34  1  0
  7 35  1  0
  9 36  1  0
 10 37  1  0
 17 38  1  0
 18 39  1  0
 21 40  1  0
 24 41  1  0
M  END
